reduced_networks/ieee8500/31pct/dss/Models.dss
! Original supporting model objects
new XfmrCode.ct5 Phases=1 kV=[7.2 0.12 0.12] kVA=[5 5 5] %IMag=0.5 %R=[0.6 1.2 1.2] %NoLoadLoss=0.2 X12=2.04 X13=2.04 X23=1.36
new XfmrCode.ct10 Phases=1 kV=[7.2 0.12 0.12] kVA=[10 10 10] %IMag=0.5 %R=[0.6 1.2 1.2] %NoLoadLoss=0.2 X12=2.04 X13=2.04 X23=1.36
new XfmrCode.ct15 Phases=1 kV=[7.2 0.12 0.12] kVA=[15 15 15] %IMag=0.5 %R=[0.6 1.2 1.2] %NoLoadLoss=0.2 X12=2.04 X13=2.04 X23=1.36
new XfmrCode.ct25 Phases=1 kV=[7.2 0.12 0.12] kVA=[25 25 25] %IMag=0.5 %R=[0.6 1.2 1.2] %NoLoadLoss=0.2 X12=2.04 X13=2.04 X23=1.36
new XfmrCode.ct37 Phases=1 kV=[7.2 0.12 0.12] kVA=[37.5 37.5 37.5] %IMag=0.5 %R=[0.6 1.2 1.2] %NoLoadLoss=0.2 X12=2.04 X13=2.04 X23=1.36
new XfmrCode.ct50 Phases=1 kV=[7.2 0.12 0.12] kVA=[50 50 50] %IMag=0.5 %R=[0.6 1.2 1.2] %NoLoadLoss=0.2 X12=2.04 X13=2.04 X23=1.36
new XfmrCode.ct75 Phases=1 kV=[7.2 0.12 0.12] kVA=[75 75 75] %IMag=0.5 %R=[0.6 1.2 1.2] %NoLoadLoss=0.2 X12=2.04 X13=2.04 X23=1.36
new XfmrCode.ct100 Phases=1 kV=[7.2 0.12 0.12] kVA=[100 100 100] %IMag=0.5 %R=[0.6 1.2 1.2] %NoLoadLoss=0.2 X12=2.04 X13=2.04 X23=1.36
new XfmrCode.ct250 Phases=1 kV=[7.2 0.12 0.12] kVA=[250 250 250] %IMag=0.5 %R=[0.6 1.2 1.2] %NoLoadLoss=0.2 X12=2.04 X13=2.04 X23=1.36
